function mpc = case1354pegase
%CASE1354PEGASE

%% MATPOWER Case Format : Version 2
mpc.version = '2';

%%-----  Power Flow Data  -----%%
%% system MVA base
mpc.baseMVA = 100;

%% bus data
%	bus_i	type	Pd	Qd	Gs	Bs	area	Vm	Va	baseKV	zone	Vmax	Vmin
mpc.bus = [
	1	1	151	48.8	0	4.69	0	1.016674	-21.761632	220	5	1.1	0.9;
	2	1	171.41	23.4	0	2.1	0	1.026472	-7.007354	220	5	1.1	0.9;
	3	1	134	24.7	0	12.44	0	1.038534	-24.281644	220	5	1.1	0.9;
	4	1	161.2	39.3	0	30.71	0	1.036195	-21.958828	220	5	1.1	0.9;
	5	1	0	-0	0	0.85	0	1.035058	-18.483339	220	5	1.1	0.9;
	6	1	167.3	54.8	0	110.54	0	1.032267	-3.318448	380	5	1.1	0.9;
	7	1	152.9	49.4	0	27.65	0	0.994409	-13.816418	380	5	1.1	0.9;
	8	1	-0	0	0	7.27	0	1.045829	-22.181066	220	5	1.1	0.9;
	9	1	48.65	16.1	0	7.14	0	1.063422	-9.070013	220	5	1.1	0.9;
	10	1	0	0	0	2.31	0	0.983702	-21.159412	380	5	1.1	0.9;
	11	1	119.2	20.7	0	3.31	0	1.036808	-23.631999	220	5	1.1	0.9;
	12	1	363.25	115.39	0	3.95	0	1.042187	-27.546292	220	5	1.1	0.9;
	13	1	-8.4	28.66	0	3.49	0	1.030441	-15.689479	220	5	1.1	0.9;
	14	1	-0	-0	0	6.532711	0	1.030718	-14.242909	380	5	1.1	0.9;
	15	1	0	-0	0	4.21	0	1.066797	-19.783678	220	5	1.1	0.9;
	16	1	704.53	-35.33	0	13.102834	0	1.020256	-11.430028	380	5	1.1	0.9;
	17	2	0	0	0	0	0	1.081537	8.330657	220	5	1.1	0.9;
	18	1	23.73	12.7	0	0.52	0	1.020482	-16.063366	220	5	1.1	0.9;
	19	1	38.34	5.6	0	7.64	0	1.039096	-8.903623	220	5	1.1	0.9;
	20	1	32.34	12	0	6.1	0	1.041568	-7.991267	220	5	1.1	0.9;
	21	2	0	0	0	0	0	1.062805	2.531831	220	5	1.1	0.9;
	22	1	147.76	32.73	0	8.34	0	1.047047	-10.672351	220	5	1.1	0.9;
	23	1	100.8	13.2	0	5.24	0	1.069649	-25.153324	220	5	1.1	0.9;
	24	1	370.5	-17	0	9.91	0	1.074846	-27.942789	220	5	1.1	0.9;
	25	1	-0	-0	0	2.42	0	1.042771	-11.94851	220	5	1.1	0.9;
	26	1	36.84	13.9	0	3.3	0	1.018752	-19.550413	220	5	1.1	0.9;
	27	1	73.14	21.55	0	8.52	0	1.056337	-8.791116	220	5	1.1	0.9;
	28	1	0	-0	0	12.48	0	1.074825	-26.319857	220	5	1.1	0.9;
	29	1	39.74	11.8	0	1.44	0	1.01673	-16.306681	220	5	1.1	0.9;
	30	1	321.98	84.4	0	1.34	0	1.026604	-13.457588	220	5	1.1	0.9;
	31	1	155.6	54.7	0	2.21	0	1.039362	-24.590496	220	5	1.1	0.9;
	32	1	105.2	0.1	0	7.36	0	1.042762	-2.603638	220	5	1.1	0.9;
	33	1	69.83	15.12	0	2.23	0	1.045923	-13.114892	220	5	1.1	0.9;
	34	2	0	0	0	0	0	0.984682	-21.807603	380	5	1.1	0.9;
	35	1	0	0	0	1.15	0	1.063761	-20.174043	220	5	1.1	0.9;
	36	1	119.6	29.6	0	5.34	0	1.035725	-11.193679	220	5	1.1	0.9;
	37	1	27.33	11.9	0	1.17	0	1.035204	-12.094637	220	5	1.1	0.9;
	38	1	13.82	1.4	0	0.7	0	1.047544	-14.765137	220	5	1.1	0.9;
	39	1	103	12	0	0.63	0	1.067188	-32.434719	220	5	1.1	0.9;
	40	1	-0	0	0	4.76	0	1.030032	-18.823594	220	5	1.1	0.9;
	41	1	163.1	46.3	0	10.6	0	1.005548	-16.020947	220	5	1.1	0.9;
	42	1	524.5	43	0	6.85	0	1.014579	-42.137692	220	5	1.1	0.9;
	43	2	0	0	0	0	0	1.048249	-6.162533	220	5	1.1	0.9;
	44	1	197.5	48.3	0	0.71	0	1.040694	-21.298393	220	5	1.1	0.9;
	45	1	110.4	26.2	0	5.62	0	1.043185	-24.295117	220	5	1.1	0.9;
	46	2	0	0	0	0	0	1.055378	0.262953	380	5	1.1	0.9;
	47	1	65.17	-51.5	0	4.85	0	1.07164	-23.599251	220	5	1.1	0.9;
	48	1	56.5	36.29	0	3.08	0	1.026548	-14.262083	220	5	1.1	0.9;
	49	1	129.1	7.4	0	0.04	0	1.039791	-11.549917	220	5	1.1	0.9;
	50	1	170.89	50.38	0	6.44	0	1.041564	-26.439994	220	5	1.1	0.9;
	51	2	0	0	0	0	0	1.05013	-6.606455	220	5	1.1	0.9;
	52	1	70.68	13.5	0	6.96	0	1.0458	-6.728632	220	5	1.1	0.9;
	53	1	123.1	6.5	0	3.25	0	1.040489	-18.395441	220	5	1.1	0.9;
	54	1	-0	-0	0	68.517663	0	1.047774	2.403578	380	5	1.1	0.9;
	55	1	0	-0	0	2.45	0	1.036267	-12.201434	220	5	1.1	0.9;
	56	1	0	0	0	29.42	0	1.021739	-8.489958	380	5	1.1	0.9;
	57	2	0	0	0	0	0	1.018914	-7.857046	380	5	1.1	0.9;
	58	1	274.32	5.66	0	13.24	0	1.045882	-30.596498	220	5	1.1	0.9;
	59	1	20.52	4	0	2.77	0	1.036451	-23.014287	220	5	1.1	0.9;
	60	1	144.4	35.5	0	7.66	0	1.040423	-15.042452	220	5	1.1	0.9;
	61	1	-0	0	0	1.96	0	1.043564	-6.675538	220	5	1.1	0.9;
	62	1	-0	0	0	0.4	0	1.063297	-9.078728	380	5	1.1	0.9;
	63	1	57.46	17.1	0	1.61	0	1.038461	-7.443414	220	5	1.1	0.9;
	64	2	0	0	0	0	0	1.075592	-33.453515	220	5	1.1	0.9;
	65	1	118.5	20.4	0	2.57	0	1.048239	-27.108761	220	5	1.1	0.9;
	66	1	0	-0	0	5.15	0	1.074517	-10.959606	220	5	1.1	0.9;
	67	1	0	-0	0	1.97	0	1.024071	-20.793083	220	5	1.1	0.9;
	68	1	16.52	9	0	1.17	0	1.03694	-22.762979	220	5	1.1	0.9;
	69	1	0	-0	0	0.32	0	1.055451	-11.021763	220	5	1.1	0.9;
	70	2	0	0	0	0	0	1.069817	-47.078276	220	5	1.1	0.9;
	71	1	0	-0	0	0.67	0	1.04436	-11.163788	220	5	1.1	0.9;
	72	2	0	0	0	0	0	1.045397	-15.568574	220	5	1.1	0.9;
	73	1	67.57	17	0	5.75	0	1.036683	-8.869667	220	5	1.1	0.9;
	74	1	140.6	42.6	0	5.71	0	1.040685	-14.418335	220	5	1.1	0.9;
	75	1	33.24	4.4	0	24.54	0	0.996939	-12.93567	380	5	1.1	0.9;
	76	1	150.9	10.4	0	4.77	0	1.071753	-32.66829	220	5	1.1	0.9;
	77	1	-0	-0	0	5.67	0	1.025344	-14.779536	220	5	1.1	0.9;
	78	2	0	0	0	0	0	1.063876	-10.607341	220	5	1.1	0.9;
	79	2	0	0	0	0	0	1.048713	-12.997468	220	5	1.1	0.9;
	80	1	72.88	14.4	0	2.96	0	1.046742	-25.252227	220	5	1.1	0.9;
	81	2	0	0	0	0	0	1.051376	-29.999643	220	5	1.1	0.9;
	82	1	45.32	18.5	0	0.74	0	1.03515	-13.956622	220	5	1.1	0.9;
	83	1	258.4	66.7	0	5.87	0	1.033849	-17.442414	220	5	1.1	0.9;
	84	1	-0	-0	0	0.6	0	1.040021	2.414523	380	5	1.1	0.9;
	85	1	-5.61	-2.79	0	150.93	0	1.03076	-5.413919	380	5	1.1	0.9;
	86	1	232.1	89.8	0	0.09	0	0.986375	-18.62447	220	5	1.1	0.9;
	87	2	0	0	0	0	0	1.0691	-10.045044	220	5	1.1	0.9;
	88	1	-0	0	0	5.6	0	1.05742	-4.068613	220	5	1.1	0.9;
	89	1	83.99	21.2	0	5.36	0	1.054495	-25.620212	220	5	1.1	0.9;
	90	1	135.11	41	0	5.31	0	1.031148	-24.884639	220	5	1.1	0.9;
	91	1	-0	-0	0	23.554121	0	0.981824	-26.763103	380	5	1.1	0.9;
	92	1	400.3	189.9	0	0.53	0	1.048069	-4.933448	220	5	1.1	0.9;
	93	1	0	-0	0	2.83	0	1.05759	-4.070122	220	5	1.1	0.9;
	94	1	69.58	16	0	3.03	0	1.073922	-26.380554	220	5	1.1	0.9;
	95	2	0	0	0	0	0	1.057884	-28.950791	220	5	1.1	0.9;
	96	1	-0	-0	0	18.63	0	1.041141	-24.444747	220	5	1.1	0.9;
	97	2	0	0	0	0	0	1.017567	-13.765564	380	5	1.1	0.9;
	98	1	-0	0	0	7.85	0	1.047952	-19.8489	220	5	1.1	0.9;
	99	1	152.57	40	0	6.12	0	1.024104	-10.886119	220	5	1.1	0.9;
	100	1	343.9	141.9	0	5.55	0	1.034361	-14.167643	220	5	1.1	0.9;
	101	2	0	0	0	0	0	1.026368	-13.331099	220	5	1.1	0.9;
	102	2	0	0	0	0	0	1.049411	-6.680953	220	5	1.1	0.9;
	103	1	-0	-0	0	6.63	0	1.051689	-5.954643	220	5	1.1	0.9;
	104	2	0	0	0	0	0	1.035522	-15.484388	220	5	1.1	0.9;
	105	1	50.56	18	0	0.11	0	1.034778	-12.128589	220	5	1.1	0.9;
	106	2	0	0	0	0	0	1.041369	-24.768342	220	5	1.1	0.9;
	107	1	-0	-0	0	7.26	0	1.05585	-7.563603	220	5	1.1	0.9;
	108	1	124.5	29.6	0	15.4	0	1.05673	-11.12828	220	5	1.1	0.9;
	109	1	0	-0	0	58.088687	0	1.027525	-0.064839	380	5	1.1	0.9;
	110	1	0	-0	0	0.22	0	1.052169	-0.720463	220	5	1.1	0.9;
	111	2	0	0	0	0	0	1.044097	-2.229251	380	5	1.1	0.9;
	112	1	-0	-0	0	8.17514	0	1.024385	-1.386321	380	5	1.1	0.9;
	113	2	0	0	0	0	0	1.00025	-17.401395	220	5	1.1	0.9;
	114	2	0	0	0	0	0	1.031745	1.110134	380	5	1.1	0.9;
	115	1	110	3.4	0	11.95	0	1.040762	-24.602002	220	5	1.1	0.9;
	116	1	108.89	-21.76	0	3.72	0	1.056945	-11.955754	220	5	1.1	0.9;
	117	1	192.5	78.3	0	6.65	0	1.017176	-10.133417	220	5	1.1	0.9;
	118	2	0	0	0	0	0	1.064525	-18.97841	380	5	1.1	0.9;
	119	1	-0	-0	0	9.1	0	1.069234	-34.99461	220	5	1.1	0.9;
	120	1	0	0	0	0.15	0	1.050278	-15.385577	220	5	1.1	0.9;
	121	1	82.69	20.1	0	1.36	0	1.073885	-26.405705	220	5	1.1	0.9;
	122	1	631.71	-54.16	0	7.534129	0	1.035643	-15.075813	380	5	1.1	0.9;
	123	1	-0	-0	0	0.05	0	1.038555	-9.767436	220	5	1.1	0.9;
	124	1	125.9	-0.5	0	0.21	0	1.065214	-7.929625	220	5	1.1	0.9;
	125	1	34.44	8.5	0	1.11	0	1.045537	-20.769903	220	5	1.1	0.9;
	126	1	62.07	14.7	0	4.84	0	1.035596	-23.090183	220	5	1.1	0.9;
	127	1	-0	0	0	22.75	0	1.019946	-21.525393	220	5	1.1	0.9;
	128	1	-0	0	0	9.46	0	1.049182	-24.470238	220	5	1.1	0.9;
	129	1	108.7	-12.15	0	37.11	0	1.065973	-13.014498	380	5	1.1	0.9;
	130	1	66.27	13.6	0	0.67	0	1.044324	-21.525875	220	5	1.1	0.9;
	131	1	-0	-0	0	108.728602	0	1.063295	-9.078724	380	5	1.1	0.9;
	132	1	88.5	16.5	0	146.44	0	1.015553	-11.659761	380	5	1.1	0.9;
	133	2	0	0	0	0	0	1.072621	5.35893	380	5	1.3	0.7;
	134	1	14.71	4.6	0	7.88	0	1.047164	-25.138433	220	5	1.1	0.9;
	135	2	0	0	0	0	0	1.074143	-33.62199	220	5	1.1	0.9;
	136	2	0	0	0	0	0	1.041506	-20.086455	220	5	1.1	0.9;
	137	1	0	0	0	0.81	0	1.053955	-12.379476	220	5	1.1	0.9;
	138	1	44.55	0	0	4.78	0	1.056277	-5.398682	220	5	1.1	0.9;
	139	1	201.4	53	0	9.67	0	1.028182	-29.352232	220	5	1.1	0.9;
	140	1	-5.91	-2.33	0	30.393595	0	0.990542	-18.181223	380	5	1.1	0.9;
	141	1	26.33	5.3	0	4.31	0	1.040934	-24.521854	220	5	1.1	0.9;
	142	1	382.5	57.9	0	8.16	0	1.067815	-32.322562	220	5	1.1	0.9;
	143	1	34.64	-0	0	0.91	0	1.034441	-19.543294	220	5	1.1	0.9;
	144	1	31.94	8.8	0	3.79	0	1.038913	-9.027471	220	5	1.1	0.9;
	145	2	0	0	0	0	0	1.028946	-3.693426	380	5	1.1	0.9;
	146	1	-0	0	0	3.79	0	1.041627	-12.829065	220	5	1.1	0.9;
	147	1	-0	0	0	0.1	0	1.035206	-12.094658	220	5	1.1	0.9;
	148	1	-0	-0	0	4.74	0	1.061509	-3.472987	220	5	1.1	0.9;
	149	1	277.86	58.95	0	182.880644	0	1.038644	-10.509999	380	5	1.1	0.9;
	150	2	0	0	0	0	0	1.049472	-8.613737	220	5	1.1	0.9;
	151	1	56.06	18.7	0	4.24	0	1.0101	-21.692579	220	5	1.1	0.9;
	152	2	0	0	0	0	0	1.027056	-8.507308	380	5	1.1	0.9;
	153	1	0	-0	0	0.16	0	1.050189	-1.116839	220	5	1.1	0.9;
	154	2	0	0	0	0	0	1.042801	-4.348181	220	5	1.1	0.9;
	155	1	-0	-0	0	2.05	0	1.033508	-14.209132	220	5	1.1	0.9;
	156	2	0	0	0	0	0	1.049879	-6.64195	220	5	1.1	0.9;
	157	1	29.83	7.3	0	6.49	0	1.074759	-26.325932	220	5	1.1	0.9;
	158	1	0	0	0	1.1	0	1.036823	-8.871578	220	5	1.1	0.9;
	159	1	190.47	55.03	0	6.7	0	1.003325	-22.532961	220	5	1.1	0.9;
	160	1	16.22	2	0	0.71	0	1.034786	-18.539009	220	5	1.1	0.9;
	161	1	-0	-0	0	0.05	0	1.048666	-24.42816	220	5	1.1	0.9;
	162	1	32.84	-0	0	1.41	0	1.032638	-5.627486	220	5	1.1	0.9;
	163	1	-0	-0	0	18.82	0	1.043354	-20.606997	220	5	1.1	0.9;
	164	1	12.41	3.9	0	2.23	0	1.034654	-6.058841	220	5	1.1	0.9;
	165	1	65.67	24	0	9.95	0	1.038055	-22.501868	220	5	1.1	0.9;
	166	1	112.4	13	0	3.99	0	1.052615	-36.244174	220	5	1.1	0.9;
	167	1	-0	-0	0	2.3	0	1.074468	-25.55724	220	5	1.1	0.9;
	168	1	86.6	23.4	0	0.39	0	1.040896	-2.802576	220	5	1.1	0.9;
	169	1	199.4	-19.9	0	6.68	0	1.066643	-33.081849	220	5	1.1	0.9;
	170	1	67.57	21.2	0	5.71	0	1.039857	-4.955282	220	5	1.1	0.9;
	171	1	30.93	6.6	0	9.09	0	1.054495	-14.222981	220	5	1.1	0.9;
	172	1	129.6	13.3	0	13.98	0	1.03896	-15.127161	380	5	1.1	0.9;
	173	1	0	0	0	30.637696	0	0.987964	-14.637206	380	5	1.1	0.9;
	174	1	114.1	23.5	0	1.08	0	1.050304	-19.627666	220	5	1.1	0.9;
	175	1	0	0	0	4.93	0	1.040626	-10.966354	220	5	1.1	0.9;
	176	1	0	-0	0	1.72	0	1.037981	-22.526704	220	5	1.1	0.9;
	177	1	71.78	17.9	0	1.96	0	1.022628	-16.524518	220	5	1.1	0.9;
	178	2	0	0	0	0	0	1.108028	-6.285992	380	5	1.3	0.7;
	179	1	0	0	0	1.17	0	1.047205	-10.673893	220	5	1.1	0.9;
	180	1	348.93	26.47	0	9.36	0	1.019402	-11.26449	380	5	1.1	0.9;
	181	2	0	0	0	0	0	1.027102	-8.516785	380	5	1.1	0.9;
	182	1	-0	0	0	10.73	0	1.038607	-22.034538	220	5	1.1	0.9;
	183	1	173	-21.3	0	5.93	0	1.066705	-50.057306	220	5	1.1	0.9;
	184	1	52.46	2.9	0	0.35	0	1.032647	-18.856368	220	5	1.1	0.9;
	185	2	0	0	0	0	0	1.03682	-8.643487	220	5	1.1	0.9;
	186	1	479	99.2	0	10.68	0	1.05167	-28.720012	220	5	1.1	0.9;
	187	1	-0	-0	0	4.34	0	1.038253	-22.269637	220	5	1.1	0.9;
	188	1	37.94	15.2	0	35.31	0	1.033986	-21.654604	380	5	1.1	0.9;
	189	1	0	0	0	0.98	0	1.069384	-34.995605	220	5	1.1	0.9;
	190	1	0	0	0	0.59	0	1.025188	-16.314102	220	5	1.1	0.9;
	191	2	0	0	0	0	0	1.032899	-14.204982	220	5	1.1	0.9;
	192	1	-0	-0	0	58.3	0	0.996377	-14.200565	380	5	1.1	0.9;
	193	2	0	0	0	0	0	1.041045	-7.375163	220	5	1.1	0.9;
	194	1	-3.29	-1.32	0	190.704588	0	1.0328	-8.554156	380	5	1.1	0.9;
	195	1	40.85	14.5	0	0.59	0	1.039851	-12.092524	220	5	1.1	0.9;
	196	1	145.2	21.4	0	1.09	0	1.033661	-22.574327	220	5	1.1	0.9;
	197	1	30.93	7.6	0	4.69	0	1.074659	-26.314245	220	5	1.1	0.9;
	198	1	0	-0	0	2.14	0	1.037924	-12.820941	220	5	1.1	0.9;
	199	1	196.7	44.2	0	0.1	0	1.017322	-19.003234	220	5	1.1	0.9;
	200	1	11.91	2.9	0	5.27	0	1.038647	-14.758146	220	5	1.1	0.9;
	201	1	144.7	20.3	0	6.35	0	1.022683	-27.895964	220	5	1.1	0.9;
	202	1	0	-0	0	0.3	0	1.032141	-11.506028	220	5	1.1	0.9;
	203	2	0	0	0	0	0	1.04353	-20.966559	220	5	1.1	0.9;
	204	1	-0	0	0	3.85	0	1.044674	-24.345986	220	5	1.1	0.9;
	205	2	0	0	0	0	0	1.047684	-12.917585	220	5	1.1	0.9;
	206	1	0	0	0	9.49	0	1.075069	-15.319825	220	5	1.1	0.9;
	207	1	-0	-0	0	3.38	0	1.042934	-21.817757	220	5	1.1	0.9;
	208	1	-0	0	0	0.42	0	1.043552	-20.967069	220	5	1.1	0.9;
	209	1	-11.03	-5.11	0	29.706803	0	0.988454	-15.339654	380	5	1.1	0.9;
	210	2	0	0	0	0	0	1.048068	-15.82908	220	5	1.1	0.9;
	211	1	0	0	0	4.86	0	1.064156	-26.867437	220	5	1.1	0.9;
	212	1	79.59	18.8	0	6.78	0	1.034956	-23.34269	220	5	1.1	0.9;
	213	1	-1.85	-1.63	0	31.424588	0	1.034255	-11.521816	380	5	1.1	0.9;
	214	1	-0	0	0	37.116157	0	1.027764	-26.693479	380	5	1.1	0.9;
	215	1	0	-0	0	1.84	0	1.025322	-14.28951	220	5	1.1	0.9;
	216	1	-10.86	-5.93	0	12.54	0	1.042753	-11.9479	220	5	1.1	0.9;
	217	1	36.34	15.2	0	0.3	0	1.033256	-8.75699	220	5	1.1	0.9;
	218	1	73.58	3.24	0	52.35	0	1.059384	-15.296455	220	5	1.1	0.9;
	219	1	125.4	45.8	0	0	0	1.039282	-23.538177	220	5	1.1	0.9;
	220	1	42.55	8.2	0	2.06	0	1.042222	-23.472695	220	5	1.1	0.9;
	221	1	-0	-0	0	1.02	0	1.040481	-15.042995	220	5	1.1	0.9;
	222	1	-0	-0	0	7.99	0	1.043158	-20.41875	220	5	1.1	0.9;
	223	1	20.42	8.1	0	35.15	0	1.042604	-16.620759	380	5	1.1	0.9;
	224	1	0	-0	0	4.96	0	1.020729	-16.043428	220	5	1.1	0.9;
	225	1	-0	-0	0	0.95	0	1.061796	-11.391738	220	5	1.1	0.9;
	226	1	77.39	24.1	0	2.67	0	1.042236	-25.854486	220	5	1.1	0.9;
	227	1	156.9	-4	0	2.48	0	1.036219	-24.756749	220	5	1.1	0.9;
	228	1	69.08	21.5	0	1.65	0	1.046858	-25.154702	220	5	1.1	0.9;
	229	1	0	-0	0	1.38	0	1.040417	-12.029853	220	5	1.1	0.9;
	230	1	0	-0	0	3.24	0	1.026871	-14.239921	220	5	1.1	0.9;
	231	1	28.33	44.8	0	0.51	0	1.037512	-2.335282	220	5	1.1	0.9;
	232	1	71.77	13.57	0	3.84	0	1.01584	-29.283839	220	5	1.1	0.9;
	233	2	0	0	0	0	0	1.043862	-6.640235	220	5	1.1	0.9;
	234	1	-0	0	0	0.05	0	1.076968	-24.357645	220	5	1.1	0.9;
	235	1	73.78	-0	0	2.69	0	1.030671	-5.514136	380	5	1.1	0.9;
	236	1	0	0	0	6.55	0	1.05016	-20.676376	220	5	1.1	0.9;
	237	1	73.18	22.3	0	8.77	0	1.047827	-19.847235	220	5	1.1	0.9;
	238	1	41.95	8.5	0	1.05	0	1.043667	-11.062381	220	5	1.1	0.9;
	239	2	0	0	0	0	0	1.028554	0.427747	380	5	1.1	0.9;
	240	1	95.71	25.9	0	11.38	0	1.042277	-25.887944	220	5	1.1	0.9;
	241	1	449.56	245.72	0	94.55	0	1.054472	3.4279	380	5	1.1	0.9;
	242	1	3.67	-1.86	0	3.89	0	1.046228	-20.80193	220	5	1.1	0.9;
	243	1	-28.13	-0.83	0	0.1	0	1.061821	-11.405066	220	5	1.1	0.9;
	244	2	0	0	0	0	0	1.04395	-2.225166	380	5	1.1	0.9;
	245	1	83.19	25.8	0	0.33	0	1.047275	-10.47462	220	5	1.1	0.9;
	246	1	62.16	8	0	2.99	0	1.038923	-13.052366	220	5	1.1	0.9;
	247	2	0	0	0	0	0	1.037938	-13.186223	380	5	1.1	0.9;
	248	1	-15.38	-4.94	0	33.241519	0	1.007462	-14.734072	380	5	1.1	0.9;
	249	1	25.13	-61.6	0	3.68	0	1.052686	-29.767092	220	5	1.1	0.9;
	250	2	0	0	0	0	0	1.062238	2.466713	220	5	1.1	0.9;
	251	1	-17.18	-4.35	0	44.419365	0	1.025799	-14.51076	380	5	1.1	0.9;
	252	1	0	0	0	6.68	0	1.030326	-32.491405	220	5	1.1	0.9;
	253	1	-0	0	0	1.86	0	1.049354	-24.089302	220	5	1.1	0.9;
	254	1	58.46	6.6	0	10.13	0	1.036578	-19.191311	220	5	1.1	0.9;
	255	2	0	0	0	0	0	1.04286	-17.149587	380	5	1.1	0.9;
	256	1	0	-0	0	121.29	0	1.03465	-4.424306	380	5	1.1	0.9;
	257	1	-0	-0	0	0.28	0	1.034875	-30.808254	380	5	1.1	0.9;
	258	1	333.5	-1.4	0	8.37	0	1.049612	-45.569227	220	5	1.1	0.9;
	259	1	73.98	22.5	0	1.15	0	1.042927	-11.13756	220	5	1.1	0.9;
	260	1	-0	0	0	1.64	0	1.05106	-25.97492	220	5	1.1	0.9;
	261	2	0	0	0	0	0	1.05295	-0.236871	380	5	1.1	0.9;
	262	1	-0.63	-0.83	0	22.810288	0	0.987325	-7.424983	380	5	1.1	0.9;
	263	1	-0	-0	0	0.05	0	1.038883	-22.036572	220	5	1.1	0.9;
	264	2	0	0	0	0	0	1.046224	-0.834506	220	5	1.1	0.9;
	265	1	88.92	19.79	0	2.81	0	1.029057	-7.519944	220	5	1.1	0.9;
	266	1	108.91	33.7	0	56.24	0	1.069539	-12.567622	380	5	1.1	0.9;
	267	1	0	0	0	3.33	0	1.036371	-22.480232	220	5	1.1	0.9;
	268	1	0	-0	0	3.02	0	1.037419	-22.162507	220	5	1.1	0.9;
	269	1	-28.14	-0.76	0	0.1	0	1.061839	-11.404513	220	5	1.1	0.9;
	270	2	0	0	0	0	0	1.04762	-12.927099	220	5	1.1	0.9;
	271	2	0	0	0	0	0	1.054325	-25.744509	220	5	1.1	0.9;
	272	1	0	0	0	1.53	0	1.028608	-11.055937	220	5	1.1	0.9;
	273	1	88.8	-3.2	0	13.63	0	1.060858	-25.532569	220	5	1.1	0.9;
	274	1	209.2	23.5	0	6.44	0	1.04474	-28.285319	220	5	1.1	0.9;
	275	1	11.71	3.8	0	2.96	0	1.035258	-15.877966	220	5	1.1	0.9;
	276	1	-0	-0	0	6.273568	0	1.030797	-14.242223	380	5	1.1	0.9;
	277	1	27.33	5	0	6.77	0	1.029787	-16.425673	220	5	1.1	0.9;
	278	2	0	0	0	0	0	1.039377	-2.376673	220	5	1.1	0.9;
	279	1	20.82	-0	0	0.14	0	1.070353	7.588403	220	5	1.1	0.9;
	280	1	-0	-0	0	1.18	0	1.021131	-6.153674	380	5	1.1	0.9;
	281	1	-0	0	0	2.68	0	1.049243	-6.695385	220	5	1.1	0.9;
	282	2	0	0	0	0	0	1.035636	-20.619184	220	5	1.1	0.9;
	283	1	197.5	-31	0	17.34	0	1.050486	-25.132946	220	5	1.1	0.9;
	284	1	192.11	45.5	0	68.04	0	1.002407	-11.646061	380	5	1.1	0.9;
	285	1	0	0	0	1.19	0	1.03614	-18.037347	220	5	1.1	0.9;
	286	2	0	0	0	0	0	1.064692	-10.511132	220	5	1.1	0.9;
	287	1	248.7	8.1	0	12.46	0	1.066548	-49.702693	220	5	1.1	0.9;
	288	1	210.1	66.2	0	59.36	0	1.074741	-26.300211	220	5	1.1	0.9;
	289	1	0	0	0	0.14	0	1.074144	-33.621995	220	5	1.1	0.9;
	290	1	177.3	36.4	0	0.7	0	1.040983	-21.42173	220	5	1.1	0.9;
	291	1	25.73	7.3	0	2.82	0	1.033294	-20.141362	220	5	1.1	0.9;
	292	1	41.45	4.9	0	18.43	0	1.038506	-18.675791	220	5	1.1	0.9;
	293	1	72.08	21.3	0	7.19	0	1.044528	-21.078894	220	5	1.1	0.9;
	294	1	0	0	0	9.98	0	1.051074	-24.096673	220	5	1.1	0.9;
	295	1	3.9	1	0	3.81	0	1.050096	-24.96566	220	5	1.1	0.9;
	296	2	0	0	0	0	0	1.03088	0.693557	380	5	1.1	0.9;
	297	1	14.02	6.5	0	0.09	0	1.037536	-5.903671	220	5	1.1	0.9;
	298	1	3.2	1.7	0	0.05	0	1.043517	-20.967534	220	5	1.1	0.9;
	299	1	0	0	0	0.14	0	1.032138	-12.426968	220	5	1.1	0.9;
	300	2	0	0	0	0	0	1.009914	-1.144693	380	5	1.1	0.9;
	301	1	-0	0	0	7.338808	0	1.038215	-9.076082	380	5	1.1	0.9;
	302	1	120.2	20.5	0	19.94	0	1.04971	-30.773674	220	5	1.1	0.9;
	303	1	101.2	2.1	0	38.43	0	1.065746	-17.405584	380	5	1.1	0.9;
	304	1	77.19	18.6	0	2.22	0	1.020675	-14.721188	220	5	1.1	0.9;
	305	1	0	-0	0	13.94	0	1.050272	-12.128304	220	5	1.1	0.9;
	306	1	121.4	20.2	0	16.61	0	1.035	-18.482915	220	5	1.1	0.9;
	307	2	0	0	0	0	0	1.040351	2.467063	380	5	1.1	0.9;
	308	1	-0	0	0	6.02	0	1.052176	-12.052739	220	5	1.1	0.9;
	309	1	199.86	56.93	0	46.83	0	1.04312	-25.770522	220	5	1.1	0.9;
	310	1	-5.64	-2.84	0	34.582195	0	1.016671	-8.086067	380	5	1.1	0.9;
	311	1	-0	-0	0	38.32	0	1.02998	-5.549174	380	5	1.1	0.9;
	312	1	79.09	18.7	0	10.8	0	1.035961	-23.062582	220	5	1.1	0.9;
	313	1	0	0	0	56.686515	0	1.016495	-8.242431	380	5	1.1	0.9;
	314	1	107.3	14.2	0	20.23	0	1.039669	-15.783021	220	5	1.1	0.9;
	315	1	0	-0	0	7.63	0	1.050391	-7.902365	220	5	1.1	0.9;
	316	1	63.67	20.2	0	6.13	0	1.037645	-5.893797	220	5	1.1	0.9;
	317	1	35.66	-9.39	0	7.89	0	1.048364	-28.662661	220	5	1.1	0.9;
	318	1	20.92	7.7	0	1.21	0	1.052887	-14.673236	220	5	1.1	0.9;
	319	1	0	0	0	61.795782	0	1.011944	-13.202451	380	5	1.1	0.9;
	320	2	0	0	0	0	0	1.07333	-28.416356	220	5	1.1	0.9;
	321	1	0	0	0	32.849821	0	0.995876	-16.181883	380	5	1.1	0.9;
	322	1	-0	0	0	0.18	0	1.047761	-6.28234	220	5	1.1	0.9;
	323	2	0	0	0	0	0	1.035528	-6.012095	380	5	1.1	0.9;
	324	1	74.98	26.9	0	2.96	0	1.051126	-13.420372	220	5	1.1	0.9;
	325	1	0	-0	0	2.91	0	1.062959	-13.080678	220	5	1.1	0.9;
	326	1	0	-0	0	1.71	0	1.036513	-22.481463	220	5	1.1	0.9;
	327	1	0	0	0	0.45	0	1.049391	1.166976	220	5	1.1	0.9;
	328	1	-0	-0	0	2.76	0	1.02489	-19.020985	220	5	1.1	0.9;
	329	1	100.7	-4.2	0	1.57	0	1.068023	-47.917821	220	5	1.1	0.9;
	330	1	141.3	32.4	0	7.29	0	1.074359	-26.339387	220	5	1.1	0.9;
	331	2	0	0	0	0	0	1.05324	-23.758819	220	5	1.1	0.9;
	332	1	208.88	60.8	0	6.68	0	1.023269	-8.717089	220	5	1.1	0.9;
	333	1	170.9	39	0	11.25	0	1.034468	-8.57662	220	5	1.1	0.9;
	334	2	0	0	0	0	0	1.072528	-10.610728	220	5	1.1	0.9;
	335	1	0	-0	0	7.94	0	1.03744	-15.856049	220	5	1.1	0.9;
	336	1	88.7	-0.1	0	2.83	0	1.058495	-25.832763	220	5	1.1	0.9;
	337	1	32.04	6.6	0	0.44	0	1.038612	-24.078628	220	5	1.1	0.9;
	338	1	0	-0	0	0.41	0	1.046654	-21.265608	220	5	1.1	0.9;
	339	1	39.64	20.9	0	0.65	0	1.061069	-8.962289	220	5	1.1	0.9;
	340	1	114.5	25.2	0	17.57	0	1.047194	-25.133812	220	5	1.1	0.9;
	341	1	-0	0	0	0.4	0	1.017489	-14.250876	220	5	1.1	0.9;
	342	1	103.4	27	0	1.41	0	1.045493	-29.7818	220	5	1.1	0.9;
	343	1	96.91	13.9	0	3.98	0	1.03958	-12.236094	220	5	1.1	0.9;
	344	1	-0	0	0	3.28	0	1.065118	-26.070582	220	5	1.1	0.9;
	345	2	0	0	0	0	0	1.024884	-9.921886	380	5	1.1	0.9;
	346	1	215.5	31.3	0	14.23	0	1.044563	-21.085033	220	5	1.1	0.9;
	347	1	16.9	3.85	0	25.09	0	1.052288	-29.004707	220	5	1.1	0.9;
	348	1	37.94	15.4	0	117.386167	0	1.033702	-22.17424	380	5	1.1	0.9;
	349	1	0	-0	0	14.490904	0	0.991274	-17.482034	380	5	1.1	0.9;
	350	1	101.7	17.6	0	13.14	0	1.036655	-14.897845	220	5	1.1	0.9;
	351	1	20.82	0	0	0.13	0	1.070495	7.700354	220	5	1.1	0.9;
	352	1	0	0	0	1.69	0	1.048666	-24.428158	220	5	1.1	0.9;
	353	2	0	0	0	0	0	1.047766	-23.702161	220	5	1.1	0.9;
	354	1	44.55	16.8	0	2.31	0	1.034979	-22.416002	220	5	1.1	0.9;
	355	2	0	0	0	0	0	1.041186	-9.882232	220	5	1.1	0.9;
	356	2	0	0	0	0	0	1.037687	-13.762974	220	5	1.1	0.9;
	357	1	-0	0	0	6.21	0	1.041369	-11.921713	220	5	1.1	0.9;
	358	1	291.2	35.4	0	21.87	0	1.030479	-32.300033	220	5	1.1	0.9;
	359	1	-0	0	0	0.64	0	1.046626	-21.265307	220	5	1.1	0.9;
	360	2	0	0	0	0	0	1.06157	7.557722	380	5	1.1	0.9;
	361	1	30.73	9.6	0	2.75	0	1.040059	-24.619174	220	5	1.1	0.9;
	362	1	132	26	0	27.18	0	1.006537	-13.460583	380	5	1.1	0.9;
	363	1	0	-0	0	11.65	0	1.018095	-14.100158	220	5	1.1	0.9;
	364	2	0	0	0	0	0	1.048132	-6.215141	220	5	1.1	0.9;
	365	1	0	0	0	0.21	0	1.065573	-7.808732	220	5	1.1	0.9;
	366	1	-2.65	-1.17	0	65.673108	0	1.008158	-2.627166	380	5	1.1	0.9;
	367	2	0	0	0	0	0	1.042777	-18.185589	220	5	1.1	0.9;
	368	2	0	0	0	0	0	1.049366	1.167288	220	5	1.1	0.9;
	369	1	-0	0	0	2.09	0	1.012856	-21.48175	220	5	1.1	0.9;
	370	1	115.87	29.41	0	7.92	0	1.028486	-12.08393	220	5	1.1	0.9;
	371	1	-5.29	-1.91	0	42.622979	0	0.999088	-11.536983	380	5	1.1	0.9;
	372	1	238.45	46.86	0	125.534496	0	1.044376	-19.855823	380	5	1.1	0.9;
	373	1	59.77	16.7	0	0.64	0	1.043988	-4.63491	220	5	1.1	0.9;
	374	1	51.56	2.1	0	0.18	0	1.037544	-2.896669	220	5	1.1	0.9;
	375	2	0	0	0	0	0	1.049384	-6.666685	220	5	1.1	0.9;
	376	1	159.27	38.31	0	2.18	0	1.023305	-16.640241	220	5	1.1	0.9;
	377	1	52.86	13	0	6.04	0	1.046977	-4.707678	220	5	1.1	0.9;
	378	1	62.97	17.4	0	0.3	0	1.04159	-2.724929	220	5	1.1	0.9;
	379	1	253.77	84.6	0	20.71	0	1.030923	-15.233022	220	5	1.1	0.9;
	380	1	14.72	5.4	0	0.72	0	1.033106	-10.863404	220	5	1.1	0.9;
	381	1	25.63	12.7	0	8.42	0	1.040506	-15.286014	220	5	1.1	0.9;
	382	2	0	0	0	0	0	1.038821	-13.64341	220	5	1.1	0.9;
	383	2	0	0	0	0	0	1.061488	7.521439	380	5	1.1	0.9;
	384	1	203.1	65.2	0	0.64	0	1.045498	-24.492103	220	5	1.1	0.9;
	385	1	0	0	0	1.72	0	1.042124	-11.251293	220	5	1.1	0.9;
	386	1	0	0	0	0.19	0	1.07369	-24.808555	220	5	1.1	0.9;
	387	2	0	0	0	0	0	1.036517	-23.007774	220	5	1.1	0.9;
	388	1	207.1	50.4	0	4.93	0	1.019228	-18.770253	220	5	1.1	0.9;
	389	1	-0.72	0	0	69.582294	0	1.034308	-22.749906	380	5	1.1	0.9;
	390	1	123.24	23.65	0	6.44	0	1.035697	-14.93988	220	5	1.1	0.9;
	391	1	0	0	0	0.45	0	1.034001	-3.213772	220	5	1.1	0.9;
	392	1	16.22	8.9	0	2.2	0	1.038344	-21.004788	220	5	1.1	0.9;
	393	1	151.7	27.6	0	6.49	0	1.043222	-25.609448	220	5	1.1	0.9;
	394	2	0	0	0	0	0	1.035384	-15.495326	220	5	1.1	0.9;
	395	1	-0	0	0	10.040547	0	0.983623	-22.371652	380	5	1.1	0.9;
	396	1	85.59	20.72	0	142.79	0	1.013054	-10.064991	380	5	1.1	0.9;
	397	1	55.56	26.5	0	1.09	0	1.049925	-30.124895	220	5	1.1	0.9;
	398	1	34.54	8.6	0	5.05	0	1.042162	-21.896741	220	5	1.1	0.9;
	399	1	-0	0	0	3.72	0	1.051994	-13.365671	220	5	1.1	0.9;
	400	1	85.39	14.3	0	0.35	0	1.047946	-9.667144	220	5	1.1	0.9;
	401	1	-28.13	-0.81	0	0.1	0	1.06184	-11.404239	220	5	1.1	0.9;
	402	2	0	0	0	0	0	1.073795	6.427789	380	5	1.3	0.7;
	403	1	0	-0	0	0.39	0	1.035004	-18.482955	220	5	1.1	0.9;
	404	1	-0	-0	0	1.94	0	1.070164	-32.44656	220	5	1.1	0.9;
	405	2	0	0	0	0	0	1.042226	-4.483231	220	5	1.1	0.9;
	406	2	0	0	0	0	0	1.05396	-12.355638	220	5	1.1	0.9;
	407	1	0	-0	0	12.17	0	1.041023	-24.502823	220	5	1.1	0.9;
	408	1	-0	-0	0	0.39	0	1.050477	0.170291	220	5	1.1	0.9;
	409	1	25.33	14.2	0	4.05	0	1.03655	-22.984441	220	5	1.1	0.9;
	410	2	0	0	0	0	0	1.053944	-0.390904	380	5	1.1	0.9;
	411	2	0	0	0	0	0	1.08248	-26.223645	220	5	1.1	0.9;
	412	2	0	0	0	0	0	1.043712	-6.650222	220	5	1.1	0.9;
	413	1	40.14	8.8	0	0.82	0	1.050663	-3.956106	220	5	1.1	0.9;
	414	1	453.23	139.16	0	25.583218	0	0.998047	-7.830482	380	5	1.1	0.9;
	415	1	-0	-0	0	4.76	0	1.03307	-18.741426	220	5	1.1	0.9;
	416	1	-12.33	-2.65	0	69.323028	0	1.044838	-10.677353	380	5	1.1	0.9;
	417	1	37.73	13.84	0	0.09	0	1.028402	-11.074681	220	5	1.1	0.9;
	418	1	-0	0	0	4.21	0	1.03784	-7.272198	220	5	1.1	0.9;
	419	2	0	0	0	0	0	1.063841	-10.631082	220	5	1.1	0.9;
	420	1	29.93	-0	0	0.46	0	1.041807	-14.920901	220	5	1.1	0.9;
	421	2	0	0	0	0	0	1.057626	-10.952158	220	5	1.1	0.9;
	422	2	0	0	0	0	0	1.055151	-14.128145	220	5	1.1	0.9;
	423	1	-0	0	0	0.22	0	1.013722	-21.258074	220	5	1.1	0.9;
	424	1	-0	0	0	3.2	0	1.050185	-1.116811	220	5	1.1	0.9;
	425	1	56.76	13.4	0	1.18	0	1.035844	-23.070363	220	5	1.1	0.9;
	426	2	0	0	0	0	0	1.059072	-23.273273	220	5	1.1	0.9;
	427	1	-0	0	0	2.87	0	1.040554	-2.262281	220	5	1.1	0.9;
	428	1	0	0	0	53.25003	0	1.02385	-28.205516	380	5	1.1	0.9;
	429	1	-0	0	0	32.049116	0	0.991588	-18.308905	380	5	1.1	0.9;
	430	1	19.92	7.4	0	17.28	0	1.057573	-33.080856	220	5	1.1	0.9;
	431	1	0	-0	0	92.38	0	1.074568	-26.335879	220	5	1.1	0.9;
	432	2	0	0	0	0	0	1.047695	-12.912307	220	5	1.1	0.9;
	433	1	230.7	19.3	0	4.56	0	1.043622	-32.26389	220	5	1.1	0.9;
	434	2	0	0	0	0	0	1.051149	-6.52803	220	5	1.1	0.9;
	435	1	0	-0	0	137.29	0	1.005521	-7.42176	380	5	1.1	0.9;
	436	1	103	28.7	0	2.88	0	1.01671	-14.352513	220	5	1.1	0.9;
	437	1	-0	-0	0	11.03	0	1.050433	-4.837602	220	5	1.1	0.9;
	438	1	159.9	53.2	0	7.99	0	1.041215	-24.387727	220	5	1.1	0.9;
	439	1	0	-0	0	0.19	0	1.046973	-17.07434	220	5	1.1	0.9;
	440	1	112.51	16.51	0	1.63	0	1.044527	-8.952764	220	5	1.1	0.9;
	441	1	97.82	20.59	0	6.67	0	1.038342	-15.064035	220	5	1.1	0.9;
	442	1	-0	0	0	0.42	0	1.063297	-9.078731	380	5	1.1	0.9;
	443	1	-0	0	0	1.68	0	1.075422	-15.322665	220	5	1.1	0.9;
	444	2	0	0	0	0	0	1.053607	-8.47854	220	5	1.1	0.9;
	445	1	0	-0	0	3.9	0	1.051891	-3.763961	220	5	1.1	0.9;
	446	1	2.2	1.1	0	0.67	0	1.049575	-5.241034	220	5	1.1	0.9;
	447	2	0	0	0	0	0	1.041705	-12.798969	220	5	1.1	0.9;
	448	1	0	-0	0	1.37	0	1.036837	-22.763335	220	5	1.1	0.9;
	449	1	74.38	8.8	0	6.1	0	1.042535	-11.458053	220	5	1.1	0.9;
	450	1	149	19.8	0	23.89	0	1.038441	-14.928463	380	5	1.1	0.9;
	451	2	0	0	0	0	0	1.030654	0.605264	380	5	1.1	0.9;
	452	1	116.93	33.6	0	3.35	0	1.046808	-25.175878	220	5	1.1	0.9;
	453	1	221	146.8	0	8.35	0	1.04857	-6.585978	220	5	1.1	0.9;
	454	1	29.33	5.6	0	6.56	0	1.044991	-21.014316	220	5	1.1	0.9;
	455	1	0	0	0	0	0	1.031148	-24.884639	220	5	1.1	0.9;
	456	1	89.6	22.7	0	4.06	0	1.033466	-8.740353	220	5	1.1	0.9;
	457	1	0	-0	0	4.27	0	1.013716	-21.258029	220	5	1.1	0.9;
	458	1	0	-0	0	2.83	0	1.044715	-7.284056	220	5	1.1	0.9;
	459	1	92.9	27.7	0	5.22	0	1.050676	-30.097241	220	5	1.1	0.9;
	460	1	30.33	10.5	0	0.33	0	1.020662	-16.898848	220	5	1.1	0.9;
	461	1	0	0	0	75.076038	0	0.998938	-15.122127	380	5	1.1	0.9;
	462	1	567.97	130.73	0	1.09	0	1.068389	-27.641331	220	5	1.1	0.9;
	463	1	64.67	24.5	0	1.46	0	1.067218	-27.697899	220	5	1.1	0.9;
	464	1	-0	0	0	0	0	1.057299	2.403578	220	5	1.1	0.9;
	465	2	0	0	0	0	0	1.071964	-11.598423	220	5	1.1	0.9;
	466	1	242.16	73.64	0	12.79	0	1.031627	-7.214885	220	5	1.1	0.9;
	467	1	104.78	20.92	0	6.17	0	1.021547	-17.925447	220	5	1.1	0.9;
	468	2	0	0	0	0	0	1.065372	-9.169038	220	5	1.1	0.9;
	469	2	0	0	0	0	0	1.023117	-15.704702	220	5	1.1	0.9;
	470	1	0	-0	0	0.03	0	1.065118	-26.070583	220	5	1.1	0.9;
	471	1	860.95	-182.67	0	18.309116	0	0.993017	-41.441031	380	5	1.1	0.9;
	472	1	184.91	32.8	0	8.35	0	1.039048	-17.527734	220	5	1.1	0.9;
	473	2	0	0	0	0	0	1.055515	-11.832574	220	5	1.1	0.9;
	474	1	14.12	7.7	0	1.42	0	1.040299	-21.338667	220	5	1.1	0.9;
	475	1	107	34.7	0	1.54	0	1.042404	-12.953299	220	5	1.1	0.9;
	476	1	127.8	15.2	0	9.34	0	1.040776	-12.071062	220	5	1.1	0.9;
	477	1	86.2	19.9	0	5.43	0	1.036168	-23.053307	220	5	1.1	0.9;
	478	1	8.51	3.2	0	0.96	0	1.017023	-10.267075	220	5	1.1	0.9;
	479	2	0	0	0	0	0	1.041982	-1.292668	380	5	1.1	0.9;
	480	2	0	0	0	0	0	1.028507	-11.253521	220	5	1.1	0.9;
	481	1	76.38	24.8	0	3.24	0	1.047766	-12.146786	220	5	1.1	0.9;
	482	1	251.3	42.6	0	5.47	0	1.025161	-14.287368	220	5	1.1	0.9;
	483	1	-5.06	-1.84	0	187.327025	0	1.056229	-11.611515	380	5	1.1	0.9;
	484	2	0	0	0	0	0	1.050305	-1.129073	220	5	1.1	0.9;
	485	1	132	27	0	4.66	0	1.030192	-17.957576	220	5	1.1	0.9;
	486	1	-0	0	0	1.18	0	0.990554	-18.181283	380	5	1.1	0.9;
	487	1	20.9	-171.5	0	0.21	0	1.080513	7.863586	220	5	1.1	0.9;
	488	1	84.19	17.3	0	6.2	0	1.05498	-11.325947	220	5	1.1	0.9;
	489	1	0	0	0	1.44	0	1.038882	-22.03657	220	5	1.1	0.9;
	490	1	-0	-0	0	0.13	0	1.050076	-7.893785	220	5	1.1	0.9;
	491	1	33.14	11.6	0	4.51	0	1.038075	-11.39812	220	5	1.1	0.9;
	492	2	0	0	0	0	0	1.071978	8.08029	220	5	1.1	0.9;
	493	2	0	0	0	0	0	1.014126	-16.129669	220	5	1.1	0.9;
	494	1	-0	0	0	0.91	0	1.033998	-20.055869	220	5	1.1	0.9;
	495	1	-0	-0	0	2.27	0	1.038066	-12.156606	220	5	1.1	0.9;
	496	1	-0	-0	0	4.56	0	1.0175	-10.215862	220	5	1.1	0.9;
	497	1	83.29	24.1	0	1.23	0	1.039524	-16.595479	220	5	1.1	0.9;
	498	2	0	0	0	0	0	1.01594	-12.063974	380	5	1.1	0.9;
	499	2	0	0	0	0	0	1.045739	-3.042188	220	5	1.1	0.9;
	500	2	0	0	0	0	0	1.0538	-12.359552	220	5	1.1	0.9;
	501	1	77.49	21.4	0	0.05	0	1.018192	-10.51029	220	5	1.1	0.9;
	502	2	0	0	0	0	0	1.039984	-11.495624	220	5	1.1	0.9;
	503	1	302.5	65.1	0	8.87	0	1.059691	-20.937372	220	5	1.1	0.9;
	504	1	0	0	0	17.31	0	1.047571	-25.085016	220	5	1.1	0.9;
	505	1	23.22	6.3	0	0.66	0	1.034711	-14.123031	220	5	1.1	0.9;
	506	1	-0	0	0	0	0	1.057299	2.403578	220	5	1.1	0.9;
	507	2	0	0	0	0	0	1.063657	-10.680951	220	5	1.1	0.9;
	508	1	125.1	44	0	6.04	0	1.015255	-16.040907	220	5	1.1	0.9;
	509	1	-0	0	0	10.13	0	1.043606	-25.55539	220	5	1.1	0.9;
	510	2	0	0	0	0	0	1.060777	-13.286433	220	5	1.1	0.9;
	511	1	45.14	-6.64	0	88.82001	0	0.999706	-5.879329	380	5	1.1	0.9;
	512	1	78.99	16.2	0	1.97	0	1.046643	-21.48337	220	5	1.1	0.9;
	513	1	142.5	23.6	0	4.24	0	1.023602	-20.789174	220	5	1.1	0.9;
	514	1	157.78	276.03	0	91.192543	0	1.051877	2.264367	380	5	1.1	0.9;